 .Wgn file Subbasin: 8 STATION NAME:136s744w 2020-03-28 00:00:00 ArcSWAT 2012.10_5.21
  LATITUDE = -13.58 LONGITUDE = -74.38
  ELEV [m] =3207.00
  RAIN_YRS =  32.00
 15.44 14.92 14.80 14.41 13.51 11.85 11.25 12.51 13.47 15.43 16.27 16.17
  4.10  3.45  2.54  0.44 -2.04 -3.43 -4.04 -2.77 -0.76  1.52  2.68  3.93
  2.66  2.89  2.99  3.25  3.48  3.43  3.95  4.03  4.02  3.49  3.21  2.76
  2.13  2.48  2.81  3.25  3.88  3.59  3.89  3.62  3.80  3.38  2.79  2.19
  99.6  89.3  73.1  39.3  13.3   8.9   8.4  20.1  41.8  57.1  61.7  81.1
  4.44  4.81  4.17  3.43  1.72  1.15  0.75  1.92  2.96  3.79  4.22  4.18
  2.57  2.97  3.47  5.21  9.27  7.20  3.92  4.88  3.29  3.45  3.69  2.71
  0.43  0.41  0.35  0.19  0.10  0.09  0.09  0.12  0.19  0.22  0.29  0.38
  0.44  0.44  0.42  0.39  0.31  0.34  0.38  0.39  0.41  0.42  0.42  0.43
 20.94 18.34 16.91 10.41  5.09  4.53  5.63  6.91 11.44 13.09 13.97 17.97
 13.82 16.09 13.49 13.11  9.91  5.36  2.55  7.44  7.91 11.89 12.59 11.05
 25.17 24.35 23.54 22.43 21.29 20.42 20.79 22.78 24.19 26.69 27.71 26.45
  0.71  0.74  0.76  0.76  0.73  0.70  0.69  0.69  0.71  0.67  0.65  0.66
  2.86  2.65  2.51  2.30  2.11  2.29  2.48  2.74  2.85  2.79  2.55  2.60
