 .Wgn file Subbasin: 9 STATION NAME:108s759w 2020-03-28 00:00:00 ArcSWAT 2012.10_5.21
  LATITUDE = -10.77 LONGITUDE = -75.94
  ELEV [m] =4000.00
  RAIN_YRS =  32.00
 11.86 11.26 11.48 11.85 12.03 10.83 10.18 10.89 10.93 12.31 13.01 12.28
  3.35  3.19  2.72  2.09  1.24 -0.56 -1.13 -0.34  1.21  2.18  2.81  3.22
  2.58  2.69  2.69  2.64  2.26  2.26  2.59  2.73  2.83  2.70  2.92  2.81
  1.83  1.80  1.79  2.14  2.58  2.62  2.52  2.36  2.03  2.23  1.93  1.81
 260.5 251.8 206.1 135.0  54.8  26.2  23.6  34.9  80.0 149.8 173.7 238.4
  9.62 10.02  8.51  7.25  3.50  1.97  1.50  2.23  4.50  7.85  7.84  9.30
  1.58  1.55  1.94  2.62  3.88  4.56  3.55  3.19  2.86  2.30  1.93  1.64
  0.56  0.69  0.59  0.36  0.26  0.19  0.20  0.19  0.33  0.32  0.43  0.48
  0.47  0.48  0.46  0.44  0.44  0.42  0.40  0.42  0.44  0.44  0.44  0.47
 25.50 24.50 24.69 19.19 15.91 11.47 11.63 12.84 18.34 19.13 20.69 24.47
 19.09 19.04 17.71 17.68 11.87  6.69  4.72  6.01 11.37 15.96 15.47 19.90
 16.55 14.57 15.41 17.10 18.17 17.50 17.84 19.18 17.65 19.95 20.27 18.03
  0.81  0.84  0.83  0.82  0.80  0.78  0.77  0.76  0.80  0.78  0.76  0.79
  2.35  2.30  2.39  2.45  2.54  2.81  2.99  3.16  3.05  3.00  2.74  2.47
