 .Wgn file Subbasin: 15 STATION NAME:108s766w 2020-03-28 00:00:00 ArcSWAT 2012.10_5.21
  LATITUDE = -10.77 LONGITUDE = -76.56
  ELEV [m] =4071.00
  RAIN_YRS =  32.00
 12.16 11.22 11.40 12.26 13.57 12.69 12.21 13.09 13.56 14.40 13.31 12.44
  2.10  1.97  1.56  1.20  0.72 -0.32 -1.15 -0.41  1.05  2.38  1.00  1.38
  4.21  4.28  4.19  4.28  3.11  2.96  3.25  3.42  3.33  2.91  3.38  3.97
  3.85  3.14  2.94  3.39  2.54  2.38  2.19  2.18  2.25  2.40  4.46  3.85
  60.0  66.7  63.1  47.6  16.9   4.5   2.3   5.0  21.9  62.0  60.4  59.0
  3.12  4.04  3.54  3.19  1.59  0.81  0.47  0.67  1.83  3.61  3.59  3.28
  2.51  2.89  2.96  3.28  4.28  8.56  8.36  5.56  3.75  2.66  3.19  2.65
  0.39  0.35  0.37  0.28  0.11  0.04  0.03  0.07  0.19  0.29  0.28  0.32
  0.40  0.42  0.40  0.37  0.34  0.28  0.23  0.26  0.32  0.38  0.42  0.40
 16.66 16.28 16.66 12.22  5.72  1.78  1.22  2.69  7.75 13.97 14.53 15.13
  9.04  9.84 10.94  9.02  5.42  4.70  2.22  2.46  5.70  8.38 11.45  8.46
 21.63 20.70 20.20 21.21 22.58 22.21 23.08 25.09 25.37 25.15 24.67 23.11
  0.74  0.79  0.80  0.78  0.71  0.67  0.65  0.64  0.67  0.66  0.70  0.72
  2.77  2.76  2.74  3.02  3.32  4.16  4.53  4.74  4.32  3.52  2.86  2.77
