 .Wgn file Subbasin: 10 STATION NAME:111s759w 2020-03-28 00:00:00 ArcSWAT 2012.10_5.21
  LATITUDE = -11.08 LONGITUDE = -75.94
  ELEV [m] =3999.00
  RAIN_YRS =  32.00
 13.52 12.99 13.03 12.94 12.88 11.57 10.83 11.61 12.12 13.49 14.22 13.77
  1.49  1.29  0.36 -0.62 -1.59 -3.12 -3.58 -2.66 -1.20 -0.05  0.89  1.41
  2.30  2.52  2.41  2.45  1.98  1.92  2.18  2.27  2.49  2.35  2.57  2.52
  2.74  2.54  2.51  2.78  2.66  2.37  2.26  2.35  2.97  3.17  2.62  2.59
  77.9  72.5  49.2  37.3  15.1   6.8   4.9  10.8  34.4  58.5  56.4  63.9
  4.70  4.81  3.47  3.24  1.66  0.99  0.74  1.35  3.01  4.23  3.97  3.77
  3.08  2.73  3.59  4.68  5.57  6.85  7.06  5.49  4.14  3.14  3.00  2.63
  0.31  0.31  0.27  0.18  0.12  0.06  0.05  0.07  0.15  0.18  0.22  0.29
  0.39  0.38  0.37  0.37  0.33  0.33  0.33  0.35  0.39  0.39  0.39  0.39
 14.69 13.00 11.81  8.94  5.88  3.03  2.44  3.94  8.38 10.06 11.03 13.56
 14.52 11.98  9.82 11.80  6.57  4.53  3.25  4.90 11.62 13.60  9.76  9.86
 23.42 22.61 23.02 22.82 22.26 21.77 22.63 24.63 24.68 25.56 25.63 23.98
  0.71  0.74  0.74  0.74  0.72  0.70  0.68  0.68  0.72  0.71  0.67  0.70
  2.78  2.60  2.62  2.62  2.67  2.82  2.99  3.19  3.19  3.17  2.91  2.71
