 .Wgn file Subbasin: 16 STATION NAME:114s762w 2020-03-28 00:00:00 ArcSWAT 2012.10_5.21
  LATITUDE = -11.40 LONGITUDE = -76.25
  ELEV [m] =4466.00
  RAIN_YRS =  32.00
  8.43  6.47  6.41  6.97  8.12  7.85  7.49  8.55  8.71  9.17  8.28  8.17
  1.48  0.22 -0.42 -1.75 -3.28 -4.57 -5.57 -4.68 -3.04 -0.99 -1.40  0.00
  3.18  4.20  4.33  4.60  4.56  4.18  4.11  4.46  4.69  4.55  4.49  3.73
  3.18  3.72  4.42  5.64  7.18  7.40  7.34  7.00  6.79  6.10  5.81  4.29
 286.8 241.0 226.5 173.7  89.2  33.5  21.1  35.9  91.4 180.3 192.6 224.0
  7.82  7.77  7.20  6.95  4.76  2.77  1.80  2.71  4.54  7.16  6.97  6.82
  1.25  1.28  1.44  1.54  2.17  3.93  4.23  3.46  1.87  1.50  1.30  1.21
  0.61  0.60  0.47  0.36  0.21  0.12  0.11  0.12  0.29  0.37  0.35  0.49
  0.48  0.49  0.48  0.46  0.43  0.43  0.39  0.43  0.44  0.45  0.46  0.48
 28.28 25.50 26.66 21.13 14.75  8.63  7.19  8.75 16.47 21.13 22.41 25.84
 17.80 15.96 19.75 13.70  9.64 10.07  6.29  8.79  8.57 14.68 13.05 13.91
 18.04 18.00 18.28 19.48 20.62 21.15 22.52 24.35 23.18 22.42 22.48 20.48
  0.78  0.85  0.84  0.82  0.74  0.65  0.63  0.61  0.69  0.70  0.75  0.78
  2.29  2.24  2.19  2.22  2.20  2.63  2.84  2.96  2.67  2.29  2.07  2.11
