 .Wgn file Subbasin: 11 STATION NAME:117s756w 2020-03-28 00:00:00 ArcSWAT 2012.10_5.21
  LATITUDE = -11.71 LONGITUDE = -75.63
  ELEV [m] =4046.00
  RAIN_YRS =  32.00
 12.82 11.93 11.68 12.08 12.15 10.90 10.17 10.99 11.71 12.74 13.13 12.71
  0.84  0.31 -0.55 -1.82 -3.17 -4.11 -4.77 -3.75 -2.27 -0.97 -0.05  0.53
  2.36  2.97  3.05  2.99  2.55  2.32  2.50  2.80  2.93  2.79  2.91  2.69
  2.28  2.24  2.62  2.17  1.91  1.64  1.89  1.74  1.97  2.17  2.26  2.46
  55.1  53.6  41.9  21.6   3.9   1.2   0.4   1.9  10.9  25.7  33.3  44.4
  3.38  3.45  2.62  2.04  0.95  0.38  0.12  0.39  1.64  2.39  2.77  2.84
  3.01  2.78  3.06  4.54 15.60 14.07 12.27 10.05  9.50  4.61  4.33  3.12
  0.32  0.36  0.31  0.13  0.04  0.02  0.01  0.03  0.08  0.14  0.21  0.26
  0.40  0.38  0.39  0.36  0.21  0.16  0.27  0.28  0.34  0.35  0.33  0.39
 13.97 13.44 13.22  6.59  1.63  0.59  0.34  1.22  4.09  7.16  9.13 12.69
  9.32  9.46  6.84  7.38  7.74  2.91  0.78  2.30  8.72  7.80  8.94  7.64
 24.57 23.30 22.47 23.39 23.72 23.01 23.81 25.77 27.05 27.50 27.11 25.12
  0.67  0.71  0.72  0.71  0.66  0.63  0.62  0.63  0.67  0.66  0.63  0.66
  2.29  2.05  1.97  2.06  2.21  2.43  2.57  2.80  2.80  2.61  2.29  2.12
