 .Sol file Watershed HRU:28 Subbasin:28 HRU:1 Luse:PAST Soil: I-To-c-5541 Slope: 10.0-20.0 2020-03-28 00:00:00 ArcSWAT 2012.10_5.21
 Soil Name: I-To-c-5541
 Soil Hydrologic Group: C
 Maximum rooting depth(mm) :  520.00
 Porosity fraction from which anions are excluded: 0.500
 Crack volume potential of soil: 0.500
 Texture 1                : LOAM
 Depth                [mm]:      300.00     1000.00
 Bulk Density Moist [g/cc]:        1.10        1.20
 Ave. AW Incl. Rock Frag  :        0.11        0.11
 Ksat. (est.)      [mm/hr]:       24.17       12.32
 Organic Carbon [weight %]:        2.20        0.80
 Clay           [weight %]:       23.00       29.00
 Silt           [weight %]:       43.00       40.00
 Sand           [weight %]:       34.00       30.00
 Rock Fragments   [vol. %]:        0.00        0.00
 Soil Albedo (Moist)      :        0.01        0.10
 Erosion K                :        0.24        0.24
 Salinity (EC, Form 5)    :        0.00        0.00
 Soil pH                  :        0.00        0.00
 Soil CACO3               :        0.00        0.00
                              
