 .Wgn file Subbasin: 22 STATION NAME:114s766w 2020-03-28 00:00:00 ArcSWAT 2012.10_5.21
  LATITUDE = -11.40 LONGITUDE = -76.56
  ELEV [m] =3951.00
  RAIN_YRS =  32.00
  9.48  7.27  7.54  8.43  9.95 10.18 10.18 11.12 11.18 11.11  9.78  9.20
  3.58  2.65  2.56  2.21  1.48  1.00  0.36  1.28  2.34  3.03  1.54  1.70
  2.79  3.98  4.05  4.50  4.72  4.61  4.61  4.87  4.93  4.60  4.49  3.71
  2.47  2.80  3.05  3.96  5.14  4.80  4.66  3.99  4.01  4.22  5.03  4.08
 454.4 433.3 445.0 283.5  80.7  22.3  11.1  21.2  68.8 167.8 219.9 303.6
 10.48 10.21 10.42  9.67  4.75  2.29  1.21  1.85  3.70  6.89  8.26  9.54
  0.66  0.51  0.83  1.19  2.58  5.14  5.19  3.79  2.48  1.99  1.37  1.22
  0.50  0.68  0.59  0.43  0.20  0.12  0.08  0.12  0.29  0.36  0.34  0.42
  0.49  0.49  0.50  0.47  0.43  0.36  0.33  0.37  0.42  0.46  0.47  0.47
 28.88 27.38 29.56 24.09 13.28  6.28  4.50  6.78 15.22 21.06 21.69 24.88
 17.20 17.98 23.80 18.02 12.87  9.44  4.79  5.18  9.72 17.63 17.04 19.75
 14.69 13.60 14.19 17.07 20.00 20.70 22.10 23.84 22.47 21.32 20.63 18.24
  0.86  0.90  0.90  0.85  0.73  0.61  0.57  0.56  0.63  0.68  0.76  0.83
  2.52  2.38  2.35  2.59  2.77  3.10  3.35  3.33  2.98  2.72  2.65  2.59
