 .Wgn file Subbasin: 20 STATION NAME:130s741w 2020-03-28 00:00:00 ArcSWAT 2012.10_5.21
  LATITUDE = -12.96 LONGITUDE = -74.06
  ELEV [m] =4002.00
  RAIN_YRS =  32.00
 15.97 15.30 15.42 16.38 17.15 16.28 15.89 17.02 17.64 18.40 18.01 17.19
  7.09  6.83  6.52  5.59  3.85  2.14  1.58  2.42  3.89  5.21  6.03  6.95
  2.67  2.74  2.77  2.71  2.09  1.93  2.30  2.49  2.60  2.60  2.90  2.83
  1.20  1.34  1.54  1.93  2.60  2.51  2.31  2.11  2.05  2.20  2.07  1.39
 188.7 216.6 237.5 139.8  39.2   9.4   5.3  15.6  37.6  84.5 142.4 169.3
  6.05  6.45  6.52  5.45  2.99  1.19  0.69  1.83  2.56  4.30  5.86  6.15
  1.64  1.39  2.01  2.02  4.39  5.80  6.67  6.38  2.97  2.29  2.10  1.63
  0.71  0.69  0.75  0.48  0.18  0.06  0.06  0.09  0.21  0.32  0.42  0.58
  0.47  0.48  0.49  0.45  0.40  0.39  0.33  0.35  0.38  0.42  0.45  0.46
 26.66 26.03 28.84 22.44 10.53  3.84  3.38  5.28 10.56 16.34 21.38 24.31
 12.76 15.20 20.08 14.83 11.06  4.60  2.89  7.67  7.01 10.44 13.95 13.06
 18.47 16.23 15.60 17.68 20.70 20.99 21.84 23.12 22.73 23.75 23.15 21.13
  0.83  0.86  0.86  0.83  0.76  0.71  0.69  0.67  0.70  0.72  0.75  0.78
  2.60  2.37  2.28  2.39  2.68  3.06  3.22  3.27  3.16  3.10  2.86  2.74
