 .Wgn file Subbasin: 23 STATION NAME:117s762w 2020-03-28 00:00:00 ArcSWAT 2012.10_5.21
  LATITUDE = -11.71 LONGITUDE = -76.25
  ELEV [m] =4630.00
  RAIN_YRS =  32.00
  8.73  6.51  6.83  7.48  8.68  8.73  8.59  9.70  9.82 10.00  8.67  8.33
  2.25  1.12  0.92 -0.04 -1.44 -1.85 -2.70 -1.53 -0.36  0.73 -0.98  0.56
  3.15  4.36  4.39  4.71  4.75  4.55  4.49  4.87  5.02  4.79  4.54  3.79
  2.88  3.18  3.53  4.69  5.67  5.17  5.18  4.47  4.87  4.95  5.96  4.28
 374.1 303.6 302.7 200.2  75.4  22.6  13.6  26.4  71.6 154.5 195.3 250.1
  8.57  8.24  8.19  7.31  4.28  2.26  1.29  2.24  3.91  6.38  7.28  7.65
  0.82  0.87  1.07  1.27  2.30  5.15  4.15  3.90  2.31  1.69  1.14  1.06
  0.53  0.61  0.60  0.34  0.18  0.10  0.09  0.12  0.25  0.34  0.33  0.46
  0.50  0.49  0.49  0.47  0.43  0.39  0.37  0.39  0.44  0.45  0.46  0.47
 29.41 26.56 28.75 22.47 12.94  6.63  5.47  7.44 15.00 20.44 21.00 25.38
 19.65 16.03 21.03 12.78  9.21  8.40  3.72  6.20  8.20 13.56 12.77 14.14
 16.90 16.44 16.57 18.68 20.61 21.21 22.44 24.11 23.08 22.37 22.08 19.91
  0.83  0.88  0.87  0.83  0.73  0.61  0.58  0.56  0.64  0.68  0.77  0.81
  1.90  1.97  1.97  2.20  2.31  2.63  2.84  2.82  2.43  2.13  2.06  2.03
