 .Wgn file Subbasin: 39 STATION NAME:111s766w 2020-03-28 00:00:00 ArcSWAT 2012.10_5.21
  LATITUDE = -11.08 LONGITUDE = -76.56
  ELEV [m] =4000.00
  RAIN_YRS =  32.00
  9.41  8.39  8.09  9.26 10.71 10.60 10.39 11.39 11.60 11.91 10.76 10.02
  2.72  2.17  1.79  1.48  0.85  0.13 -0.80 -0.10  1.20  2.36  1.17  1.99
  3.61  3.87  4.14  4.12  3.81  3.69  3.82  4.02  3.86  3.45  3.53  3.49
  2.91  2.41  2.62  3.32  3.61  3.13  3.17  2.80  2.86  2.88  4.13  3.14
 223.8 210.9 209.1 162.8  71.0  22.7  12.2  21.0  70.8 150.4 153.3 177.3
  6.16  6.63  6.38  6.09  3.73  2.08  1.21  1.75  3.44  5.85  5.77  5.97
  1.14  1.28  1.46  1.57  2.10  4.24  4.55  3.48  1.86  1.71  1.75  1.38
  0.57  0.61  0.48  0.44  0.22  0.12  0.09  0.12  0.33  0.39  0.38  0.41
  0.48  0.49  0.48  0.46  0.41  0.39  0.36  0.36  0.42  0.45  0.46  0.47
 27.28 25.47 27.00 22.63 13.88  6.66  4.91  6.81 16.03 21.63 21.38 23.59
 13.41 14.82 15.40 12.86  8.39  7.03  4.82  4.54  7.27 12.87 15.73 12.43
 17.95 16.94 17.38 19.17 21.23 21.56 22.95 24.87 23.88 22.86 22.54 20.53
  0.79  0.85  0.86  0.82  0.73  0.64  0.61  0.60  0.65  0.67  0.74  0.76
  2.82  2.76  2.69  2.96  3.14  3.77  4.10  4.16  3.67  3.10  2.82  2.87
