 .Wgn file Subbasin: 37 STATION NAME:126s756w 2020-03-28 00:00:00 ArcSWAT 2012.10_5.21
  LATITUDE = -12.65 LONGITUDE = -75.63
  ELEV [m] =4938.00
  RAIN_YRS =  32.00
  8.54  6.63  6.63  7.08  8.36  8.09  8.03  9.21  9.28  9.81  8.59  8.26
  0.57 -0.56 -1.05 -2.17 -3.90 -4.15 -4.58 -3.50 -2.46 -1.17 -1.81 -0.79
  3.43  4.61  4.87  5.08  5.21  4.78  4.72  5.18  5.23  5.13  4.89  3.67
  2.71  3.01  3.38  4.35  4.98  4.14  4.12  3.36  3.72  4.20  5.28  3.83
 287.9 221.0 226.2 176.2  64.1  17.0  14.2  27.7  81.7 159.9 162.3 212.3
  7.08  6.81  7.16  6.84  3.70  1.67  1.30  2.21  4.29  6.41  6.37  6.64
  1.10  1.07  1.24  1.60  2.11  4.41  4.00  3.57  2.01  1.45  1.35  1.11
  0.44  0.51  0.50  0.25  0.14  0.10  0.09  0.11  0.22  0.28  0.31  0.46
  0.49  0.49  0.47  0.47  0.43  0.37  0.37  0.42  0.44  0.45  0.46  0.48
 28.53 25.56 26.81 21.66 11.84  5.88  5.88  7.81 14.69 19.78 20.25 25.47
 15.99 14.28 15.10 15.41  7.08  5.68  3.75  6.07  8.25 12.88 11.76 12.44
 18.20 17.00 16.58 17.91 20.20 20.33 21.35 22.77 22.44 22.43 22.19 20.56
  0.83  0.88  0.87  0.85  0.72  0.62  0.60  0.61  0.69  0.71  0.76  0.81
  2.13  2.27  2.32  2.61  2.83  3.17  3.38  3.39  3.04  2.58  2.34  2.21
