 .Wgn file Subbasin: 36 STATION NAME:123s756w 2020-03-28 00:00:00 ArcSWAT 2012.10_5.21
  LATITUDE = -12.33 LONGITUDE = -75.63
  ELEV [m] =4922.00
  RAIN_YRS =  32.00
 10.48  8.16  8.01  8.76  9.61  8.95  8.57  9.69 10.11 10.91  9.98  9.68
  0.33 -1.36 -2.17 -3.36 -5.34 -5.58 -6.14 -4.47 -2.97 -1.62 -2.67 -1.42
  3.90  5.46  5.56  5.96  5.91  5.24  5.12  5.51  5.80  5.67  5.59  4.55
  3.62  4.23  4.73  5.97  6.90  5.57  5.56  4.34  4.39  5.02  6.09  4.72
 121.2  97.5  93.7  80.1  26.0   7.6   5.7  15.2  48.6  97.3  88.8 103.1
  4.60  4.29  4.21  4.35  1.93  0.97  0.68  1.48  3.07  5.04  4.30  4.28
  1.93  1.94  2.32  2.54  2.94  5.67  4.87  4.48  2.62  2.37  1.93  1.88
  0.50  0.47  0.44  0.27  0.13  0.07  0.06  0.09  0.18  0.25  0.31  0.40
  0.46  0.45  0.43  0.44  0.36  0.33  0.33  0.39  0.42  0.44  0.44  0.44
 23.78 20.41 20.50 16.31  7.72  3.31  3.16  5.44 11.63 16.38 17.00 20.94
 11.32  9.58 11.97 10.86  5.57  4.13  2.26  5.11  7.66 12.06  9.23 10.21
 21.68 20.55 19.63 19.99 21.02 20.96 21.87 23.43 23.41 23.83 23.96 23.10
  0.74  0.81  0.81  0.79  0.69  0.62  0.62  0.62  0.68  0.68  0.72  0.75
  2.32  2.35  2.38  2.57  2.67  3.18  3.44  3.63  3.29  2.80  2.38  2.28
