 .Wgn file Subbasin: 43 STATION NAME:126s753w 2020-03-28 00:00:00 ArcSWAT 2012.10_5.21
  LATITUDE = -12.65 LONGITUDE = -75.31
  ELEV [m] =3984.00
  RAIN_YRS =  32.00
  9.63  7.46  6.93  7.55  8.34  7.55  7.10  8.00  8.31  9.36  9.57  9.32
 -1.12 -4.16 -5.51 -7.00 -9.60-10.17-10.97 -9.16 -7.27 -4.99 -3.92 -2.41
  3.68  4.88  5.02  5.34  5.35  4.70  4.64  4.85  5.08  5.06  5.24  4.06
  4.45  6.58  7.13  8.82 10.42  9.79  9.90  9.39  8.84  8.23  7.25  5.36
 127.4  95.6  88.2  79.4  28.8  11.7  11.1  23.6  64.2 105.9  87.4 107.8
  5.31  4.84  4.33  4.51  2.14  1.21  1.00  1.87  3.76  5.43  4.60  4.81
  2.29  2.30  2.11  2.68  3.38  4.27  3.74  3.31  2.26  2.11  2.21  2.09
  0.48  0.36  0.38  0.25  0.13  0.10  0.09  0.11  0.23  0.25  0.32  0.40
  0.44  0.46  0.41  0.44  0.39  0.35  0.37  0.39  0.43  0.44  0.42  0.44
 22.28 17.97 18.13 15.25  8.31  4.97  5.59  7.50 13.59 16.38 16.13 20.34
 15.19 13.60  8.71 10.92  6.80  3.28  2.60  4.81  8.11 11.08  9.72 12.10
 22.74 21.93 21.09 20.38 21.12 20.78 21.68 23.21 23.15 24.09 24.41 23.79
  0.75  0.82  0.82  0.80  0.72  0.66  0.66  0.67  0.73  0.72  0.71  0.75
  2.50  2.29  2.20  2.12  1.96  2.24  2.41  2.73  2.67  2.53  2.20  2.26
