 .Wgn file Subbasin: 42 STATION NAME:123s753w 2020-03-28 00:00:00 ArcSWAT 2012.10_5.21
  LATITUDE = -12.33 LONGITUDE = -75.31
  ELEV [m] =3717.00
  RAIN_YRS =  32.00
 12.57 10.72  9.99 10.07 10.37  9.16  8.57  9.29  9.61 10.89 11.59 12.06
  0.27 -2.78 -4.27 -5.56 -8.06 -8.69 -9.56 -7.38 -5.29 -3.69 -3.27 -0.86
  2.70  4.33  4.78  5.30  5.56  5.04  4.99  5.17  5.41  5.20  5.02  3.49
  2.47  5.47  6.11  7.26  8.47  7.95  7.99  7.37  6.87  6.79  6.51  4.30
  56.2  46.7  39.8  34.7   7.1   3.0   2.6   8.4  27.7  47.0  41.8  52.8
  3.38  3.19  2.65  2.89  0.83  0.56  0.35  0.87  1.99  3.49  3.10  3.30
  3.21  3.06  3.38  3.81  4.81  8.91  6.32  4.50  3.09  3.63  3.51  3.41
  0.35  0.34  0.32  0.18  0.07  0.05  0.05  0.09  0.18  0.20  0.24  0.29
  0.38  0.38  0.35  0.36  0.28  0.24  0.29  0.32  0.39  0.38  0.37  0.40
 14.59 12.94 12.66  9.13  3.34  1.81  2.34  4.59  9.31 10.88 10.84 14.03
  9.67  7.42  7.86  8.86  2.82  2.78  1.88  2.74  6.17  8.86  9.12  9.05
 23.88 22.50 21.51 21.01 21.65 21.15 21.82 23.21 23.43 25.04 25.24 24.31
  0.67  0.75  0.77  0.76  0.70  0.67  0.69  0.69  0.73  0.71  0.68  0.67
  2.08  1.78  1.71  1.74  1.76  2.02  2.17  2.46  2.46  2.32  1.94  1.91
