 .Wgn file Subbasin: 41 STATION NAME:117s750w 2020-03-28 00:00:00 ArcSWAT 2012.10_5.21
  LATITUDE = -11.71 LONGITUDE = -75.00
  ELEV [m] =4964.00
  RAIN_YRS =  32.00
  5.47  5.06  4.99  5.89  7.20  6.98  6.39  6.42  5.77  6.30  6.65  6.07
  0.53  0.43  0.25 -0.24 -1.63 -3.04 -3.41 -2.35 -1.18 -0.30  0.18  0.44
  2.16  2.25  2.25  2.57  2.58  2.19  2.48  2.80  2.75  2.63  2.70  2.48
  0.91  0.99  1.02  1.21  1.64  1.41  1.43  1.36  1.27  1.21  1.26  1.10
1142.01110.21193.0 757.9 254.4  70.5  59.8 119.5 314.5 631.3 810.0 991.0
 13.64 14.22 14.30 16.24 10.95  4.61  3.41  5.81  9.54 13.47 15.10 15.20
 -0.11 -0.09 -0.11  0.40  1.97  3.44  2.85  2.28  1.13  0.68  0.17 -0.11
  0.67  0.00  0.67  0.59  0.33  0.25  0.29  0.34  0.66  0.83  0.50  0.60
  0.50  0.50  0.50  0.50  0.46  0.43  0.42  0.45  0.48  0.49  0.49  0.50
 30.91 28.25 30.81 29.09 22.88 14.69 15.75 20.75 27.97 30.25 29.00 30.31
 30.87 33.52 34.25 27.35 21.84 14.82  9.98 13.44 16.91 25.36 24.93 31.34
  9.77  8.34  8.13 10.62 15.48 17.47 17.53 16.87 13.97 14.04 14.35 12.17
  0.97  0.97  0.97  0.94  0.85  0.80  0.80  0.83  0.90  0.91  0.91  0.94
  1.96  1.80  1.74  1.87  2.25  2.58  2.65  2.66  2.56  2.43  2.28  2.08
