 .Wgn file Subbasin: 48 STATION NAME:123s750w 2020-03-28 00:00:00 ArcSWAT 2012.10_5.21
  LATITUDE = -12.33 LONGITUDE = -75.00
  ELEV [m] =4232.00
  RAIN_YRS =  32.00
 13.34 12.73 12.49 12.65 12.89 11.63 10.92 11.43 11.74 13.09 13.59 13.35
  1.78  1.68  1.03  0.08 -1.33 -2.03 -2.28 -1.55 -0.54  0.49  1.09  1.87
  2.34  2.69  2.76  2.88  2.45  2.37  2.69  2.99  3.20  2.93  3.01  2.67
  1.91  1.74  1.66  1.76  1.66  1.46  1.37  1.34  1.63  1.79  2.07  1.86
  38.6  37.4  33.3  25.5   4.6   1.7   1.9   4.8  10.9  19.0  24.9  37.9
  2.84  2.73  2.44  2.32  0.78  0.42  0.34  0.62  1.16  1.93  2.37  2.90
  3.60  3.20  3.66  3.97  7.86 10.87  8.95  6.51  6.29  4.86  4.33  4.08
  0.29  0.32  0.31  0.16  0.04  0.02  0.04  0.06  0.12  0.13  0.15  0.23
  0.32  0.34  0.30  0.35  0.25  0.27  0.27  0.30  0.37  0.34  0.32  0.37
 11.00 10.97 10.72  7.31  1.97  1.03  1.53  3.06  5.91  6.50  6.97 10.31
  7.49  7.15  7.31  6.58  4.07  2.48  1.76  2.91  5.44  5.78  7.22 10.19
 24.17 22.14 21.29 21.35 22.54 21.55 21.80 23.01 23.40 25.83 26.17 24.91
  0.69  0.71  0.71  0.70  0.63  0.62  0.63  0.67  0.71  0.68  0.64  0.65
  2.11  2.05  2.10  2.22  2.51  2.73  2.82  2.84  2.70  2.63  2.46  2.19
