 .Wgn file Subbasin: 58 STATION NAME:117s753w 2020-03-28 00:00:00 ArcSWAT 2012.10_5.21
  LATITUDE = -11.71 LONGITUDE = -75.31
  ELEV [m] =5255.00
  RAIN_YRS =  32.00
  8.99  8.18  8.04  9.04  9.96  9.13  8.39  8.65  8.69  9.47  9.93  9.32
  1.49  1.30  0.87 -0.23 -1.82 -3.20 -3.47 -2.42 -1.24 -0.11  0.71  1.22
  2.53  2.88  2.75  2.96  2.34  1.95  2.20  2.57  2.79  2.78  2.94  2.82
  1.29  1.36  1.47  1.70  1.77  1.53  1.52  1.33  1.57  1.70  1.69  1.65
 246.8 256.0 253.1 116.9  20.0   4.3   3.1  11.3  37.3  91.9 136.6 202.8
  8.31  8.51  7.76  6.14  2.23  0.78  0.39  1.02  2.54  4.82  6.10  7.31
  1.42  1.21  1.34  2.32  5.54  9.40  5.02  4.18  5.06  2.89  1.98  1.67
  0.57  0.60  0.59  0.31  0.13  0.06  0.06  0.13  0.30  0.41  0.38  0.43
  0.48  0.48  0.48  0.44  0.33  0.29  0.25  0.31  0.40  0.43  0.46  0.47
 26.47 25.28 28.06 18.56  6.50  2.38  2.66  5.94 14.03 19.19 20.41 23.78
 16.94 17.35 16.32 14.14  7.88  3.96  1.44  3.35 11.04 13.30 13.71 18.55
 16.12 13.78 13.21 16.53 20.49 20.97 21.21 21.52 20.19 20.34 20.52 17.97
  0.81  0.84  0.84  0.80  0.72  0.69  0.69  0.72  0.77  0.76  0.74  0.77
  2.15  2.02  1.91  2.05  2.32  2.51  2.58  2.64  2.58  2.44  2.34  2.19
