 .Wgn file Subbasin: 50 STATION NAME:133s744w 2020-03-28 00:00:00 ArcSWAT 2012.10_5.21
  LATITUDE = -13.27 LONGITUDE = -74.38
  ELEV [m] =3485.00
  RAIN_YRS =  32.00
 14.75 14.11 14.05 14.35 14.19 12.60 12.16 13.21 14.06 15.65 15.96 15.54
  3.76  3.29  2.56  1.14 -0.44 -1.76 -2.29 -1.54 -0.11  1.61  2.78  3.70
  2.59  2.81  2.83  2.79  2.35  2.34  2.68  2.95  3.12  2.85  2.89  2.66
  2.00  2.04  2.23  2.27  2.41  2.20  2.25  2.33  2.65  2.68  2.23  1.93
 132.9 110.1  92.8  47.3  14.9   8.0   6.1  15.7  37.8  53.6  78.7 110.0
  5.58  5.04  4.49  3.84  1.84  1.14  0.60  1.68  2.82  3.63  4.86  5.16
  1.91  1.95  3.26  5.24  9.75  7.57  4.68  6.15  3.64  3.39  3.24  2.29
  0.47  0.51  0.42  0.23  0.11  0.07  0.08  0.10  0.16  0.21  0.28  0.40
  0.45  0.45  0.44  0.40  0.36  0.36  0.35  0.37  0.43  0.41  0.42  0.44
 22.22 20.66 20.16 12.22  5.88  3.91  4.44  6.00 10.56 12.56 15.06 19.50
 11.55 10.09 15.27 15.36 11.92  5.75  2.43  7.85  8.54 10.40 13.25 13.04
 24.04 22.44 21.66 21.78 21.90 21.17 21.80 23.75 24.63 26.81 27.02 25.47
  0.76  0.79  0.79  0.77  0.72  0.69  0.68  0.67  0.71  0.69  0.68  0.71
  2.60  2.34  2.20  2.15  2.23  2.49  2.69  2.82  2.77  2.72  2.49  2.45
