 .Wgn file Subbasin: 56 STATION NAME:133s747w 2020-03-28 00:00:00 ArcSWAT 2012.10_5.21
  LATITUDE = -13.27 LONGITUDE = -74.69
  ELEV [m] =4839.00
  RAIN_YRS =  32.00
 11.60 10.58 10.38 10.26 10.13  8.99  8.48  9.50 10.18 11.79 12.11 11.93
  1.19 -0.88 -2.02 -4.12 -6.15 -6.90 -7.26 -6.01 -4.46 -2.20 -1.77  0.43
  3.46  3.87  3.95  4.53  4.65  4.33  4.57  4.91  4.91  4.58  4.00  3.53
  4.13  5.46  5.71  6.68  7.47  6.64  6.71  6.49  6.90  6.53  5.78  4.31
 208.2 162.0 146.1  91.3  37.6  19.1  18.2  39.1  82.3 109.2 122.6 166.3
  7.28  7.07  6.41  5.21  2.99  1.98  1.50  2.94  4.81  5.74  6.51  6.35
  1.63  1.93  2.27  2.95  4.14  4.88  3.45  3.28  2.25  2.33  2.82  1.70
  0.54  0.50  0.44  0.24  0.12  0.10  0.11  0.12  0.20  0.26  0.33  0.47
  0.46  0.46  0.45  0.44  0.41  0.37  0.38  0.41  0.44  0.44  0.44  0.45
 25.31 22.03 21.56 15.84  8.75  5.88  6.88  8.66 13.66 16.69 17.72 23.22
 16.73 14.16 15.07 15.12  9.52  7.14  4.25  8.96 12.13 11.55 21.39 13.27
 21.96 21.83 21.37 20.95 20.77 20.44 21.03 22.55 22.75 24.53 25.41 23.60
  0.78  0.83  0.84  0.82  0.77  0.71  0.70  0.70  0.75  0.73  0.75  0.76
  2.46  2.21  2.11  2.00  1.90  2.19  2.40  2.63  2.57  2.44  2.21  2.25
