 .Wgn file Subbasin: 60 STATION NAME:126s741w 2020-03-28 00:00:00 ArcSWAT 2012.10_5.21
  LATITUDE = -12.65 LONGITUDE = -74.06
  ELEV [m] =3743.00
  RAIN_YRS =  32.00
 19.10 18.70 18.82 19.58 20.07 19.49 19.31 20.49 21.12 21.82 21.24 20.25
  9.04  9.04  8.85  8.32  6.61  5.09  4.57  5.60  6.85  8.00  8.57  8.79
  2.68  2.67  2.75  2.36  1.73  1.39  1.68  2.03  2.22  2.28  2.68  2.74
  1.28  1.25  1.37  1.35  1.53  1.29  1.24  1.28  1.39  1.49  1.71  1.53
 108.2 130.6 160.8  71.9  12.5   3.0   1.5   4.6   8.2  32.6  66.3  79.0
  5.55  5.93  7.16  4.53  1.41  0.52  0.25  0.89  0.90  2.72  4.43  4.51
  2.68  1.94  2.44  3.32  5.90  9.82  6.66 11.22  4.84  4.12  3.37  2.60
  0.54  0.61  0.64  0.31  0.10  0.04  0.03  0.04  0.10  0.20  0.31  0.39
  0.40  0.43  0.44  0.40  0.33  0.36  0.23  0.34  0.27  0.33  0.40  0.39
 19.34 20.44 22.91 14.75  5.25  2.00  1.38  2.09  4.19  8.81 13.66 15.44
 14.79 12.06 18.56 13.93  5.44  3.06  1.02  5.99  3.10  8.39 12.51 10.10
 19.86 18.34 17.62 19.04 21.20 21.24 21.95 23.44 23.55 24.24 23.48 21.93
  0.79  0.80  0.81  0.76  0.69  0.63  0.60  0.59  0.62  0.65  0.70  0.74
  2.54  2.39  2.35  2.52  2.84  3.19  3.36  3.44  3.30  3.20  2.94  2.75
