 .Wgn file Subbasin: 62 STATION NAME:108s762w 2020-03-28 00:00:00 ArcSWAT 2012.10_5.21
  LATITUDE = -10.77 LONGITUDE = -76.25
  ELEV [m] =3722.00
  RAIN_YRS =  32.00
 12.34 10.22  9.59  9.95 10.31  9.42  8.87  9.64  9.78 11.07 11.27 12.06
  2.61  0.57 -0.64 -1.99 -3.76 -5.90 -6.40 -4.75 -2.70 -0.81 -0.11  1.48
  2.70  4.42  4.94  5.31  5.28  4.83  4.73  4.98  5.03  4.99  5.30  3.70
  2.59  4.56  5.11  5.83  6.79  6.87  6.55  6.43  6.27  6.14  5.51  3.94
 145.9 139.3 117.5  76.9  26.0  10.0  10.5  20.0  55.3 110.1 112.7 127.7
  5.67  6.50  5.39  4.60  2.14  1.11  0.91  1.38  2.97  5.27  5.25  5.59
  1.70  2.10  2.33  2.82  4.88  5.81  4.79  3.40  2.75  2.11  2.21  2.13
  0.48  0.52  0.46  0.29  0.19  0.13  0.15  0.19  0.36  0.34  0.41  0.46
  0.45  0.46  0.45  0.40  0.37  0.28  0.32  0.40  0.43  0.43  0.44  0.44
 22.88 21.13 21.59 15.03  9.81  5.47  6.78 10.28 17.53 19.31 19.63 21.28
 11.38 13.03 13.65 12.03  8.72  4.47  3.84  4.17  8.46 12.39 13.10 13.88
 19.26 18.57 19.13 20.17 21.23 20.59 20.95 22.46 21.65 22.80 22.93 20.64
  0.74  0.82  0.83  0.83  0.80  0.79  0.79  0.77  0.80  0.78  0.75  0.74
  2.58  2.25  2.15  2.21  2.32  2.62  2.76  3.08  3.21  2.97  2.53  2.44
