 .Sol file Watershed HRU:62 Subbasin:62 HRU:1 Luse:AGRL Soil: Th8-a-5672 Slope: 0-10.0 2020-03-28 00:00:00 ArcSWAT 2012.10_5.21
 Soil Name: Th8-a-5672
 Soil Hydrologic Group: B
 Maximum rooting depth(mm) : 1000.00
 Porosity fraction from which anions are excluded: 0.500
 Crack volume potential of soil: 0.500
 Texture 1                : LOAM
 Depth                [mm]:      300.00     1000.00
 Bulk Density Moist [g/cc]:        0.80        0.80
 Ave. AW Incl. Rock Frag  :        0.19        0.19
 Ksat. (est.)      [mm/hr]:      108.06       81.84
 Organic Carbon [weight %]:       10.60        8.10
 Clay           [weight %]:       20.00       22.00
 Silt           [weight %]:       43.00       32.00
 Sand           [weight %]:       37.00       46.00
 Rock Fragments   [vol. %]:        0.00        0.00
 Soil Albedo (Moist)      :        0.00        0.00
 Erosion K                :        0.15        0.15
 Salinity (EC, Form 5)    :        0.00        0.00
 Soil pH                  :        0.00        0.00
 Soil CACO3               :        0.00        0.00
                              
