 .Wgn file Subbasin: 74 STATION NAME:120s753w 2020-03-28 00:00:00 ArcSWAT 2012.10_5.21
  LATITUDE = -12.02 LONGITUDE = -75.31
  ELEV [m] =3630.00
  RAIN_YRS =  32.00
 10.49  9.04  8.61  9.41 10.02  8.71  7.98  8.35  8.52  9.76 10.55 10.48
  0.79 -0.58 -1.73 -3.58 -6.11 -6.93 -6.95 -5.49 -3.89 -2.21 -1.52  0.12
  3.06  3.95  4.09  4.47  4.08  3.53  3.63  3.90  4.07  3.93  4.24  3.57
  2.13  3.49  4.08  5.23  6.54  5.83  5.45  5.15  4.99  4.47  4.50  3.12
 141.2 134.7 121.9  70.7  13.1   4.2   3.5  11.1  34.4  67.5  86.4 124.5
  5.52  5.43  4.82  4.39  1.52  0.70  0.39  0.96  2.26  3.92  4.65  5.21
  1.83  1.68  2.01  2.92  5.47  9.01  4.42  3.88  4.35  3.14  2.69  2.05
  0.55  0.52  0.53  0.25  0.10  0.05  0.07  0.14  0.27  0.33  0.36  0.42
  0.45  0.47  0.45  0.41  0.32  0.29  0.29  0.31  0.38  0.41  0.43  0.44
 23.63 22.41 23.81 14.75  4.66  2.34  3.03  6.41 12.50 16.44 17.53 21.56
 12.14 10.91 11.43 11.24  6.43  4.22  1.18  2.88 10.08 11.22 13.02 13.45
 19.18 17.33 16.77 18.99 21.71 21.46 21.82 22.52 21.94 22.85 23.09 20.54
  0.73  0.80  0.82  0.79  0.73  0.71  0.72  0.73  0.78  0.75  0.71  0.71
  1.60  1.46  1.40  1.39  1.45  1.59  1.70  1.88  1.86  1.76  1.66  1.62
