 .Sol file Watershed HRU:72 Subbasin:72 HRU:1 Luse:WATR Soil: WATER-6997 Slope: 0-10.0 2020-03-28 00:00:00 ArcSWAT 2012.10_5.21
 Soil Name: WATER-6997
 Soil Hydrologic Group: D
 Maximum rooting depth(mm) :   25.40
 Porosity fraction from which anions are excluded: 0.500
 Crack volume potential of soil: 0.500
 Texture 1                : WATER
 Depth                [mm]:       25.00
 Bulk Density Moist [g/cc]:        0.00
 Ave. AW Incl. Rock Frag  :        0.00
 Ksat. (est.)      [mm/hr]:       99.00
 Organic Carbon [weight %]:        0.00
 Clay           [weight %]:        0.00
 Silt           [weight %]:        0.00
 Sand           [weight %]:        0.00
 Rock Fragments   [vol. %]:        0.00
 Soil Albedo (Moist)      :        0.23
 Erosion K                :        0.00
 Salinity (EC, Form 5)    :        0.00
 Soil pH                  :        0.00
 Soil CACO3               :        0.00
                              
