 .Wgn file Subbasin: 70 STATION NAME:130s747w 2020-03-28 00:00:00 ArcSWAT 2012.10_5.21
  LATITUDE = -12.96 LONGITUDE = -74.69
  ELEV [m] =4000.00
  RAIN_YRS =  32.00
 12.90 11.91 11.83 11.81 11.56 10.14  9.47 10.46 11.29 12.88 13.20 13.13
  1.30  0.67  0.06 -1.20 -2.71 -3.62 -4.01 -3.25 -2.09 -0.65  0.17  1.07
  2.39  2.72  2.78  2.95  2.90  2.90  3.30  3.40  3.37  3.13  3.02  2.54
  2.16  2.29  2.18  2.32  2.68  2.60  2.66  2.34  2.53  2.60  2.46  2.14
 117.0  91.2  79.7  46.6  17.2   8.1   7.7  19.1  46.0  57.9  71.8  93.3
  5.44  5.09  4.43  3.57  1.80  1.15  0.76  1.70  3.08  3.68  4.61  4.78
  2.08  2.33  3.10  4.03  6.02  7.01  4.29  3.92  2.93  2.94  3.30  2.56
  0.40  0.40  0.35  0.21  0.11  0.07  0.09  0.10  0.17  0.18  0.25  0.36
  0.42  0.43  0.40  0.39  0.34  0.35  0.34  0.41  0.42  0.41  0.41  0.42
 19.09 16.94 16.66 11.03  5.94  3.34  4.63  6.25 10.72 11.84 13.81 17.72
 12.29 10.49 14.30 12.16  7.82  5.40  2.58  5.13  9.93  9.19 14.07 11.99
 24.54 23.66 23.02 22.48 22.00 21.26 21.89 23.72 24.62 26.72 27.16 25.63
  0.75  0.79  0.79  0.77  0.73  0.69  0.69  0.69  0.75  0.72  0.71  0.72
  2.77  2.58  2.47  2.46  2.55  2.82  3.05  3.27  3.25  3.09  2.75  2.62
