 .Wgn file Subbasin: 84 STATION NAME:120s759w 2020-03-28 00:00:00 ArcSWAT 2012.10_5.21
  LATITUDE = -12.02 LONGITUDE = -75.94
  ELEV [m] =4936.00
  RAIN_YRS =  32.00
 10.28  8.14  7.96  8.90  9.67  9.17  8.85 10.08 10.47 11.09  9.94  9.77
  1.35  0.17 -0.49 -1.35 -2.71 -3.34 -4.12 -2.96 -1.54 -0.34 -1.35 -0.21
  3.65  5.15  5.34  5.65  5.55  5.07  4.93  5.36  5.61  5.46  5.20  3.97
  3.16  3.41  3.86  4.55  4.82  4.09  4.10  3.51  3.80  4.30  5.35  3.95
 156.3 131.7 129.5  95.9  35.0   8.8   5.7  13.8  43.0  92.2 104.8 125.5
  4.98  4.96  4.90  4.36  2.55  1.23  0.73  1.41  2.78  4.60  4.69  4.62
  1.54  1.53  1.85  1.90  3.29  7.64  5.36  4.65  3.01  2.07  1.73  1.45
  0.56  0.51  0.50  0.30  0.13  0.07  0.06  0.09  0.18  0.26  0.28  0.41
  0.47  0.47  0.46  0.43  0.39  0.34  0.29  0.37  0.42  0.43  0.45  0.45
 26.44 23.31 24.66 18.06  8.38  3.63  2.88  5.19 11.44 16.13 17.94 22.34
 12.54  9.84 11.13  9.49  8.44  6.58  2.45  4.30  8.45  9.59 10.15  9.40
 20.45 19.66 19.18 20.38 21.53 21.69 22.74 24.48 24.42 24.25 24.06 22.50
  0.77  0.83  0.83  0.79  0.69  0.60  0.59  0.58  0.65  0.66  0.72  0.76
  2.19  2.37  2.40  2.69  2.88  3.37  3.64  3.69  3.21  2.69  2.40  2.27
