 .Wgn file Subbasin: 80 STATION NAME:130s753w 2020-03-28 00:00:00 ArcSWAT 2012.10_5.21
  LATITUDE = -12.96 LONGITUDE = -75.31
  ELEV [m] =4775.00
  RAIN_YRS =  32.00
  7.60  5.78  6.06  6.38  7.30  6.88  6.64  7.73  7.92  8.71  7.58  6.96
 -0.41 -2.01 -2.70 -4.73 -7.84 -8.06 -8.31 -6.63 -5.63 -3.55 -3.88 -2.16
  3.57  4.55  4.67  5.02  4.95  4.35  4.32  4.75  4.93  4.87  4.69  3.83
  3.65  4.35  5.11  7.01  8.75  8.41  8.21  7.39  7.40  6.97  6.77  4.93
 360.0 266.6 267.3 209.8  84.4  28.0  23.5  43.9 104.4 192.9 198.0 270.3
  8.31  8.33  8.33  7.63  4.73  2.37  1.86  2.91  5.33  7.53  7.76  7.94
  0.90  1.02  1.14  1.26  2.23  3.97  3.24  2.69  2.13  1.31  1.53  0.99
  0.53  0.42  0.43  0.25  0.15  0.11  0.10  0.12  0.24  0.28  0.34  0.50
  0.49  0.49  0.48  0.47  0.44  0.40  0.38  0.43  0.45  0.46  0.46  0.48
 29.34 25.22 26.47 21.78 13.00  7.50  7.31 10.03 16.44 20.72 21.44 26.66
 18.18 16.01 14.41 15.23 11.73  8.51  4.80  6.59 11.35 12.74 15.16 13.68
 18.28 18.43 18.00 18.78 20.73 20.69 21.73 23.10 22.64 22.67 23.00 20.96
  0.84  0.88  0.88  0.85  0.74  0.65  0.64  0.64  0.72  0.73  0.79  0.84
  1.73  1.81  1.81  1.88  1.84  2.06  2.20  2.31  2.08  1.83  1.72  1.73
