 .Wgn file Subbasin: 87 STATION NAME:133s741w 2020-03-28 00:00:00 ArcSWAT 2012.10_5.21
  LATITUDE = -13.27 LONGITUDE = -74.06
  ELEV [m] =3545.00
  RAIN_YRS =  32.00
 16.11 15.44 15.47 16.16 16.65 15.39 15.02 16.17 16.78 17.99 17.96 17.30
  6.03  5.83  5.40  4.44  2.84  1.10  0.50  1.34  2.71  4.27  5.14  5.89
  2.65  2.88  2.83  2.82  2.04  1.70  2.03  2.36  2.91  2.63  2.81  2.74
  1.45  1.47  1.60  1.74  2.22  2.07  2.05  2.09  2.19  2.11  1.97  1.61
  83.7  89.5  79.6  47.7  14.6   6.6   3.9  12.1  27.3  41.5  63.0  81.3
  3.90  4.03  3.62  3.48  1.60  0.99  0.43  1.48  2.21  2.82  4.16  4.45
  2.80  3.14  3.47  4.97 11.38  9.20  4.99  7.26  4.40  4.07  3.98  3.05
  0.55  0.63  0.57  0.33  0.15  0.06  0.06  0.10  0.19  0.24  0.33  0.45
  0.45  0.47  0.46  0.41  0.35  0.38  0.32  0.35  0.38  0.40  0.41  0.42
 22.81 23.16 23.59 15.47  8.16  3.75  3.31  5.13  9.97 12.69 15.59 18.69
 10.16 13.96 12.09 11.54 11.68  5.55  1.87  7.07  7.37 11.36 13.32 11.85
 22.39 19.92 19.04 20.01 21.53 21.24 22.12 23.77 24.49 26.35 26.36 24.75
  0.79  0.81  0.82  0.79  0.72  0.68  0.65  0.65  0.69  0.69  0.70  0.73
  2.64  2.40  2.30  2.35  2.55  2.85  3.01  3.05  2.97  2.96  2.75  2.67
