 .Wgn file Subbasin: 99 STATION NAME:111s762w 2020-03-28 00:00:00 ArcSWAT 2012.10_5.21
  LATITUDE = -11.08 LONGITUDE = -76.25
  ELEV [m] =4048.00
  RAIN_YRS =  32.00
  9.82  8.34  8.16  8.99  9.54  8.54  8.14  9.07  9.53 10.65 10.65 10.28
  1.50  0.09 -0.93 -1.65 -2.74 -4.29 -5.06 -4.51 -2.91 -0.66  0.24  1.24
  3.59  4.12  4.28  4.19  4.07  4.20  4.20  4.51  4.50  4.00  3.87  3.48
  3.96  4.45  5.13  5.75  6.44  6.45  6.35  6.26  6.30  5.70  4.47  3.72
 182.7 164.4 138.0 111.1  60.5  25.2  17.3  31.1  84.7 160.1 149.8 162.7
  6.54  7.01  5.73  5.59  3.62  2.28  1.65  2.37  4.58  7.06  6.18  5.96
  1.71  1.90  2.00  2.17  2.66  3.83  4.32  3.11  2.15  1.77  1.69  1.62
  0.49  0.50  0.46  0.32  0.20  0.10  0.10  0.15  0.27  0.35  0.39  0.45
  0.46  0.45  0.45  0.43  0.40  0.40  0.36  0.39  0.44  0.44  0.46  0.46
 24.16 21.97 22.13 17.50 12.44  6.72  5.97  8.75 15.56 20.19 20.97 23.34
 16.91 13.68 13.41 13.43  9.51  6.53  5.04  5.90 10.87 12.70 12.53 12.02
 19.64 19.43 20.02 20.54 21.23 21.37 22.54 24.44 23.46 23.03 22.92 20.95
  0.74  0.81  0.82  0.80  0.76  0.71  0.69  0.68  0.73  0.72  0.72  0.72
  2.85  2.62  2.52  2.56  2.58  2.97  3.16  3.43  3.42  3.08  2.66  2.64
