 .Wgn file Subbasin: 97 STATION NAME:120s750w 2020-03-28 00:00:00 ArcSWAT 2012.10_5.21
  LATITUDE = -12.02 LONGITUDE = -75.00
  ELEV [m] =4186.00
  RAIN_YRS =  32.00
  8.01  7.28  7.16  8.15  9.38  8.52  7.71  7.71  7.39  8.31  8.84  8.39
  1.36  1.10  0.73  0.01 -1.43 -2.74 -2.99 -2.06 -1.03  0.03  0.57  1.07
  2.48  2.77  2.76  3.12  2.64  2.28  2.62  2.99  3.13  3.00  3.16  2.83
  1.22  1.38  1.34  1.55  1.75  1.57  1.49  1.44  1.56  1.55  1.72  1.54
 321.6 334.4 340.6 204.2  54.9  19.5  19.6  41.2  85.3 142.9 204.2 286.1
  8.58  9.19  8.90  8.35  4.10  1.79  1.45  2.50  3.65  5.72  7.57  8.67
  1.18  0.99  1.36  1.94  3.89  4.52  3.62  3.06  2.54  2.14  1.57  1.27
  0.70  0.54  0.50  0.35  0.20  0.16  0.18  0.26  0.46  0.52  0.51  0.49
  0.49  0.49  0.49  0.47  0.41  0.35  0.37  0.40  0.46  0.47  0.47  0.48
 29.34 26.81 29.50 23.81 12.72  7.59  8.97 13.69 21.91 24.69 24.56 27.13
 16.51 19.60 22.82 17.03 11.23  6.00  5.14  6.32 11.68 14.48 14.24 18.31
 13.43 11.39 11.06 13.94 18.49 19.11 19.04 18.68 16.53 17.60 18.32 15.92
  0.86  0.88  0.89  0.84  0.74  0.72  0.73  0.78  0.84  0.82  0.79  0.81
  2.08  2.01  2.01  2.02  2.23  2.40  2.42  2.39  2.30  2.38  2.40  2.26
