 .Wgn file Subbasin: 92 STATION NAME:120s756w 2020-03-28 00:00:00 ArcSWAT 2012.10_5.21
  LATITUDE = -12.02 LONGITUDE = -75.63
  ELEV [m] =4132.00
  RAIN_YRS =  32.00
 12.16 10.05  9.40  9.84 10.13  9.10  8.54  9.47  9.86 11.02 11.25 11.70
  0.90 -1.83 -2.90 -4.60 -6.57 -7.76 -8.11 -5.94 -4.10 -2.52 -2.37 -0.48
  2.82  4.81  5.25  5.60  5.68  5.06  4.88  5.13  5.40  5.30  5.26  3.69
  2.06  4.83  5.59  6.70  7.70  7.25  6.96  5.98  5.59  5.57  5.93  4.01
  80.1  68.4  60.3  42.5   9.8   2.9   1.7   7.1  25.9  55.6  58.6  70.4
  3.88  3.74  3.30  3.05  1.23  0.65  0.34  0.87  2.14  3.68  3.73  3.48
  2.38  2.45  3.21  3.31  8.80 13.13 12.51  5.38  4.13  3.35  3.32  2.35
  0.44  0.43  0.39  0.20  0.08  0.04  0.03  0.07  0.14  0.22  0.30  0.35
  0.43  0.42  0.41  0.40  0.32  0.25  0.29  0.33  0.39  0.41  0.39  0.42
 19.28 17.16 17.38 10.66  3.94  1.59  1.50  3.50  8.00 12.41 13.81 17.63
  9.95  8.64 11.08  8.55  8.03  4.81  2.56  2.90  7.31 11.08 11.96  8.65
 22.78 22.06 21.23 21.77 22.34 22.12 22.99 24.67 25.20 25.66 25.51 23.76
  0.67  0.76  0.77  0.76  0.69  0.66  0.65  0.65  0.70  0.69  0.68  0.68
  2.22  2.06  2.03  2.12  2.19  2.65  2.89  3.19  2.97  2.57  2.16  2.10
