 .Wgn file Subbasin: 96 STATION NAME:114s759w 2020-03-28 00:00:00 ArcSWAT 2012.10_5.21
  LATITUDE = -11.40 LONGITUDE = -75.94
  ELEV [m] =3969.00
  RAIN_YRS =  32.00
 12.94 11.24 10.59 10.53 10.28  9.15  8.66  9.56 10.32 11.55 12.00 12.55
  1.40 -1.15 -2.54 -3.90 -5.76 -7.40 -8.26 -7.45 -5.34 -2.83 -1.69  0.36
  2.30  3.89  4.44  4.66  4.71  4.40  4.26  4.55  4.79  4.46  4.27  2.86
  2.64  5.25  5.88  6.30  6.52  6.50  6.43  6.42  6.75  6.20  5.34  3.58
  61.4  56.5  39.8  29.5  12.6   6.5   3.6   7.8  26.6  45.5  45.7  49.3
  3.74  3.89  3.02  2.63  1.55  0.97  0.55  0.97  2.38  3.35  3.12  2.99
  2.86  3.07  5.69  4.19  5.86  6.88  6.29  5.31  4.51  3.44  2.88  2.81
  0.30  0.29  0.26  0.16  0.08  0.06  0.04  0.07  0.14  0.16  0.24  0.27
  0.39  0.37  0.35  0.37  0.33  0.28  0.29  0.31  0.39  0.40  0.37  0.38
 13.91 12.16 10.88  7.75  4.41  2.78  2.06  3.53  7.66 10.03 11.06 12.53
  8.28 13.08 16.24  8.30  5.35  4.47  2.00  3.22  8.33 10.04  7.97  7.64
 24.18 24.14 23.86 23.39 22.74 22.37 23.45 25.59 26.03 26.25 26.48 24.83
  0.68  0.76  0.77  0.77  0.75  0.71  0.69  0.68  0.72  0.71  0.70  0.69
  2.93  2.65  2.55  2.45  2.39  2.50  2.59  2.86  2.96  2.90  2.62  2.61
