 .Sol file Watershed HRU:103 Subbasin:103 HRU:1 Luse:FRSE Soil: I-Bd-c-5513 Slope: 40.0-9999 2020-03-28 00:00:00 ArcSWAT 2012.10_5.21
 Soil Name: I-Bd-c-5513
 Soil Hydrologic Group: C
 Maximum rooting depth(mm) :  550.00
 Porosity fraction from which anions are excluded: 0.500
 Crack volume potential of soil: 0.500
 Texture 1                : LOAM
 Depth                [mm]:      300.00     1000.00
 Bulk Density Moist [g/cc]:        1.00        1.20
 Ave. AW Incl. Rock Frag  :        0.10        0.10
 Ksat. (est.)      [mm/hr]:       37.59       13.40
 Organic Carbon [weight %]:        2.70        0.90
 Clay           [weight %]:       23.00       26.00
 Silt           [weight %]:       37.00       30.00
 Sand           [weight %]:       41.00       44.00
 Rock Fragments   [vol. %]:        0.00        0.00
 Soil Albedo (Moist)      :        0.00        0.09
 Erosion K                :        0.25        0.25
 Salinity (EC, Form 5)    :        0.00        0.00
 Soil pH                  :        0.00        0.00
 Soil CACO3               :        0.00        0.00
                              
