 .Wgn file Subbasin: 107 STATION NAME:117s747w 2020-03-28 00:00:00 ArcSWAT 2012.10_5.21
  LATITUDE = -11.71 LONGITUDE = -74.69
  ELEV [m] =4942.00
  RAIN_YRS =  32.00
 10.29 10.11 10.19 10.83 11.75 11.65 11.18 11.50 11.15 11.69 11.67 11.01
  5.50  5.53  5.48  5.03  3.44  1.76  1.30  2.74  4.23  5.02  5.21  5.35
  2.01  1.95  2.02  2.14  2.24  2.07  2.39  2.59  2.50  2.36  2.48  2.27
  0.95  0.90  1.07  1.30  1.88  1.72  1.78  1.61  1.28  1.17  1.23  1.10
 918.0 946.61051.7 709.2 246.7  63.3  49.3  96.7 252.7 502.1 695.6 814.7
 16.41 17.36 17.64 18.26 12.06  4.81  3.66  6.02 10.61 14.97 17.35 16.72
  0.49  0.46  0.38  0.69  2.29  4.25  3.82  2.91  1.64  1.12  0.71  0.52
  0.86  0.75  0.58  0.55  0.29  0.21  0.22  0.26  0.43  0.63  0.63  0.65
  0.50  0.50  0.50  0.49  0.46  0.41  0.41  0.43  0.47  0.48  0.49  0.49
 30.78 28.13 30.63 28.34 21.00 12.31 11.78 15.66 23.03 28.00 27.97 30.06
 34.76 39.50 41.89 31.67 25.22 20.61 10.18 14.59 19.91 32.94 31.98 31.18
  7.96  6.79  6.69  8.83 13.58 15.79 15.87 15.12 11.88 12.08 12.12 10.26
  0.94  0.95  0.95  0.92  0.83  0.76  0.74  0.75  0.80  0.83  0.87  0.91
  2.30  2.15  2.11  2.21  2.57  2.91  3.09  3.15  3.00  2.94  2.73  2.44
