 .Wgn file Subbasin: 103 STATION NAME:123s744w 2020-03-28 00:00:00 ArcSWAT 2012.10_5.21
  LATITUDE = -12.33 LONGITUDE = -74.38
  ELEV [m] =3942.00
  RAIN_YRS =  32.00
 20.63 20.41 20.40 20.58 20.61 19.74 19.36 20.41 21.21 22.19 21.99 21.38
  8.15  8.35  8.47  7.95  6.47  5.32  5.02  6.04  6.55  7.38  7.53  7.72
  2.13  2.15  2.24  1.92  1.46  1.33  1.63  1.84  1.76  1.80  2.11  2.13
  1.36  1.40  1.54  1.60  1.67  1.60  1.68  1.79  1.72  1.67  2.01  1.81
  26.5  28.5  37.0  13.8   2.0   0.5   0.4   1.3   1.2   5.9  13.9  17.7
  2.69  2.57  3.34  1.83  0.45  0.23  0.16  0.49  0.30  1.20  1.84  1.90
  4.84  4.02  4.10  6.13 10.89 14.82 15.27 19.03 10.13  9.64  5.82  5.49
  0.21  0.27  0.25  0.12  0.03  0.01  0.01  0.01  0.02  0.05  0.11  0.16
  0.19  0.20  0.19  0.20  0.21  0.11  0.25  0.28  0.16  0.21  0.22  0.22
  6.53  7.66  7.72  3.94  1.22  0.28  0.38  0.56  0.78  1.91  3.97  5.63
 10.00  8.47 10.21  6.90  2.80  1.48  1.23  4.38  1.68  6.19  6.72  8.71
 26.86 25.49 24.07 23.69 23.25 22.08 22.71 25.17 27.82 29.49 28.67 27.80
  0.70  0.70  0.70  0.68  0.62  0.57  0.56  0.56  0.60  0.61  0.63  0.66
  2.62  2.55  2.63  2.79  3.11  3.38  3.52  3.58  3.44  3.36  3.13  2.86
