 .Sol file Watershed HRU:101 Subbasin:101 HRU:1 Luse:PAST Soil: I-Bh-Tv-c-5518 Slope: 10.0-20.0 2020-03-28 00:00:00 ArcSWAT 2012.10_5.21
 Soil Name: I-Bh-Tv-c-5518
 Soil Hydrologic Group: C
 Maximum rooting depth(mm) :  670.00
 Porosity fraction from which anions are excluded: 0.500
 Crack volume potential of soil: 0.500
 Texture 1                : LOAM
 Depth                [mm]:      300.00     1000.00
 Bulk Density Moist [g/cc]:        1.00        1.10
 Ave. AW Incl. Rock Frag  :        0.12        0.12
 Ksat. (est.)      [mm/hr]:       45.93       24.75
 Organic Carbon [weight %]:        2.80        1.20
 Clay           [weight %]:       19.00       21.00
 Silt           [weight %]:       43.00       31.00
 Sand           [weight %]:       39.00       47.00
 Rock Fragments   [vol. %]:        0.00        0.00
 Soil Albedo (Moist)      :        0.00        0.05
 Erosion K                :        0.27        0.27
 Salinity (EC, Form 5)    :        0.00        0.00
 Soil pH                  :        0.00        0.00
 Soil CACO3               :        0.00        0.00
                              
