 .Wgn file Subbasin: 109 STATION NAME:126s750w 2020-03-28 00:00:00 ArcSWAT 2012.10_5.21
  LATITUDE = -12.65 LONGITUDE = -75.00
  ELEV [m] =3998.00
  RAIN_YRS =  32.00
 13.09 11.03 10.51 10.07  9.91  8.83  8.33  9.12  9.65 11.12 11.73 12.53
  0.19 -2.34 -3.38 -4.31 -5.53 -6.47 -6.83 -5.25 -3.90 -2.60 -2.13 -0.60
  2.21  4.05  4.54  5.04  5.26  4.91  4.75  4.99  5.21  5.15  4.84  3.01
  2.19  4.40  4.60  4.55  4.69  4.93  4.71  3.76  3.93  4.13  4.16  3.19
  42.0  35.3  27.3  23.1   5.6   3.3   3.1   8.4  22.4  29.9  28.7  36.9
  3.08  3.00  2.25  2.15  0.91  0.67  0.40  0.89  1.87  2.47  2.65  2.91
  3.62  3.77  4.39  4.40 10.41 10.60  4.76  4.62  4.11  3.59  4.46  4.81
  0.25  0.23  0.21  0.14  0.05  0.04  0.06  0.08  0.16  0.14  0.18  0.21
  0.36  0.33  0.32  0.35  0.30  0.26  0.24  0.34  0.37  0.38  0.33  0.37
 11.03  9.09  8.63  7.03  2.81  1.78  2.47  4.38  8.06  7.91  7.78  9.88
  8.73  8.94  8.33  7.23  5.78  3.69  1.29  2.69  6.37  6.22  7.68 13.05
 26.50 25.62 24.58 22.93 22.43 21.52 22.19 23.98 24.84 27.02 27.59 26.97
  0.69  0.77  0.78  0.77  0.72  0.69  0.70  0.71  0.76  0.73  0.71  0.69
  2.87  2.56  2.45  2.37  2.42  2.61  2.79  3.03  3.06  3.03  2.73  2.66
