 .Wgn file Subbasin: 112 STATION NAME:123s747w 2020-03-28 00:00:00 ArcSWAT 2012.10_5.21
  LATITUDE = -12.33 LONGITUDE = -74.69
  ELEV [m] =2314.00
  RAIN_YRS =  32.00
 15.78 12.92 12.15 12.27 12.39 11.76 11.49 12.17 12.51 13.83 14.07 15.42
  5.03  3.54  3.40  2.89  1.69  0.39 -0.17  0.98  1.79  2.91  3.40  4.04
  2.10  5.41  5.95  6.01  5.98  5.49  5.35  5.60  5.77  5.85  6.00  3.70
  1.28  3.12  2.73  3.05  3.25  3.97  4.21  3.67  3.63  3.50  3.28  2.71
  31.0  33.1  34.6  18.9   4.1   1.4   1.5   3.1   4.2   9.8  18.7  27.5
  2.61  2.60  2.71  1.89  0.80  0.42  0.34  0.58  0.66  1.40  2.02  2.35
  4.14  3.68  4.13  4.59 10.67 14.48 11.64  7.98  7.15  7.44  4.75  4.64
  0.25  0.31  0.30  0.14  0.04  0.02  0.03  0.03  0.06  0.08  0.13  0.21
  0.27  0.30  0.24  0.32  0.23  0.24  0.23  0.27  0.19  0.27  0.30  0.29
  8.72  9.78  9.84  6.19  1.75  0.91  1.25  1.53  2.25  3.38  5.34  8.25
  7.42  7.85  8.73  6.60  5.36  2.73  1.97  2.75  3.00  6.43  6.84  8.93
 25.02 23.20 22.26 22.37 23.01 21.84 22.13 23.81 25.26 27.75 27.58 26.34
  0.71  0.78  0.79  0.77  0.72  0.69  0.69  0.70  0.74  0.72  0.72  0.71
  2.57  2.41  2.50  2.69  3.09  3.40  3.50  3.47  3.26  3.20  3.01  2.72
