 .Sol file Watershed HRU:111 Subbasin:111 HRU:1 Luse:PAST Soil: I-Hl-Kl-b-5527 Slope: 40.0-9999 2020-03-28 00:00:00 ArcSWAT 2012.10_5.21
 Soil Name: I-Hl-Kl-b-5527
 Soil Hydrologic Group: D
 Maximum rooting depth(mm) :  690.00
 Porosity fraction from which anions are excluded: 0.500
 Crack volume potential of soil: 0.500
 Texture 1                : LOAM
 Depth                [mm]:      300.00     1000.00
 Bulk Density Moist [g/cc]:        1.30        1.40
 Ave. AW Incl. Rock Frag  :        0.12        0.12
 Ksat. (est.)      [mm/hr]:        8.23        4.23
 Organic Carbon [weight %]:        1.30        0.60
 Clay           [weight %]:       23.00       29.00
 Silt           [weight %]:       40.00       33.00
 Sand           [weight %]:       38.00       37.00
 Rock Fragments   [vol. %]:        0.00        0.00
 Soil Albedo (Moist)      :        0.04        0.15
 Erosion K                :        0.28        0.28
 Salinity (EC, Form 5)    :        0.00        0.00
 Soil pH                  :        0.00        0.00
 Soil CACO3               :        0.00        0.00
                              
