 .Wgn file Subbasin: 111 STATION NAME:117s759w 2020-03-28 00:00:00 ArcSWAT 2012.10_5.21
  LATITUDE = -11.71 LONGITUDE = -75.94
  ELEV [m] =3985.00
  RAIN_YRS =  32.00
 11.41  9.25  8.71  9.15  9.40  8.59  8.10  9.18  9.65 10.47 10.32 10.88
  1.78 -0.29 -1.35 -2.97 -5.33 -6.72 -7.72 -6.36 -4.40 -2.33 -1.71  0.27
  2.49  4.60  4.98  5.20  5.17  4.63  4.51  4.82  5.13  5.09  5.18  3.58
  1.86  4.21  5.11  6.19  7.28  7.36  7.29  6.89  6.71  6.01  5.75  3.87
  99.8  85.2  74.7  52.6  20.7   8.2   4.7  11.5  34.9  66.6  72.9  84.0
  4.41  4.42  3.92  3.42  1.98  1.10  0.61  1.18  2.53  3.92  4.00  3.78
  2.12  2.27  3.26  3.19  5.11  7.61  6.50  4.76  3.41  2.81  2.32  2.17
  0.47  0.41  0.39  0.22  0.11  0.07  0.05  0.09  0.16  0.23  0.31  0.39
  0.44  0.43  0.42  0.42  0.35  0.35  0.32  0.37  0.42  0.41  0.40  0.44
 20.78 17.44 17.59 12.13  6.03  3.72  2.84  4.88 10.09 13.91 15.19 18.53
 11.21 11.05 16.30 10.53  8.57  5.15  3.13  4.08  7.77 10.82  8.70 10.33
 22.18 22.17 21.78 22.21 22.45 22.33 23.43 25.39 25.58 25.51 25.53 23.66
  0.69  0.77  0.77  0.76  0.71  0.64  0.63  0.62  0.68  0.68  0.69  0.70
  2.43  2.40  2.36  2.36  2.30  2.70  2.88  3.11  2.90  2.53  2.20  2.21
