 .Wgn file Subbasin: 113 STATION NAME:130s750w 2020-03-28 00:00:00 ArcSWAT 2012.10_5.21
  LATITUDE = -12.96 LONGITUDE = -75.00
  ELEV [m] =4817.00
  RAIN_YRS =  32.00
  9.63  7.61  7.18  7.44  7.95  7.16  6.69  7.64  8.02  9.22  8.95  9.06
 -0.92 -3.94 -5.40 -6.81 -8.81 -9.59-10.32 -8.59 -6.92 -4.73 -4.57 -2.64
  3.57  4.60  4.79  5.12  4.98  4.40  4.34  4.61  4.83  4.89  4.96  3.92
  4.55  6.63  7.10  8.10  9.23  8.81  8.76  8.43  8.15  7.58  6.82  5.44
 183.4 137.4 128.5  96.8  40.6  19.1  18.8  37.8  83.0 117.6 114.0 152.0
  6.67  6.52  5.76  5.29  2.96  1.81  1.49  2.63  4.65  5.78  5.94  6.04
  1.68  2.05  2.08  2.57  3.85  4.24  3.33  2.69  2.12  1.93  2.53  1.77
  0.50  0.38  0.35  0.28  0.14  0.10  0.11  0.12  0.24  0.25  0.29  0.43
  0.46  0.46  0.44  0.42  0.41  0.39  0.40  0.41  0.42  0.44  0.43  0.46
 24.19 19.69 19.84 16.03  9.69  6.28  7.22  9.13 13.84 16.53 17.31 22.53
 14.41 14.93 12.65 15.42 11.96  5.37  4.15  5.88  9.99 11.60 16.24 14.16
 21.99 21.85 21.30 20.56 20.98 20.65 21.46 22.89 22.75 23.96 24.82 23.57
  0.78  0.84  0.85  0.82  0.75  0.69  0.70  0.69  0.76  0.75  0.78  0.79
  2.45  2.24  2.14  2.03  1.90  2.15  2.33  2.61  2.59  2.45  2.14  2.16
