 .Wgn file Subbasin: 128 STATION NAME:126s747w 2020-03-28 00:00:00 ArcSWAT 2012.10_5.21
  LATITUDE = -12.65 LONGITUDE = -74.69
  ELEV [m] =3755.00
  RAIN_YRS =  32.00
 15.03 13.18 12.67 12.22 11.72 10.67 10.25 11.10 11.71 13.21 13.92 14.96
  2.82  1.71  1.35  0.69 -0.59 -1.70 -1.97 -0.96  0.02  1.13  1.64  2.40
  2.01  3.91  4.39  4.91  5.25  5.02  4.96  5.23  5.36  5.28  4.87  2.83
  1.39  2.35  2.18  2.25  2.65  3.10  2.84  2.16  2.07  2.12  2.25  1.84
  26.3  23.9  21.9  13.7   3.0   1.1   1.1   3.0   6.1  11.0  15.7  21.1
  2.49  2.13  1.91  1.50  0.70  0.35  0.24  0.52  0.83  1.39  1.88  2.09
  5.29  4.47  4.15  5.13 13.71 14.74 10.76  8.40  6.50  6.38  5.49  5.87
  0.20  0.26  0.22  0.13  0.03  0.02  0.03  0.04  0.08  0.09  0.10  0.16
  0.30  0.30  0.24  0.30  0.28  0.19  0.18  0.25  0.29  0.33  0.33  0.32
  7.81  8.56  7.78  5.16  1.56  0.66  1.03  1.84  3.41  4.38  4.69  7.00
 10.52  8.21  6.17  5.84  4.75  2.45  1.41  2.67  3.51  5.92  6.95  9.69
 27.92 26.80 25.79 24.82 23.91 22.59 23.15 25.53 27.69 29.93 29.89 28.71
  0.71  0.77  0.78  0.77  0.73  0.69  0.69  0.70  0.75  0.73  0.72  0.70
  3.18  2.99  2.97  3.04  3.23  3.47  3.67  3.84  3.77  3.70  3.41  3.21
