 .Wgn file Subbasin: 123 STATION NAME:120s747w 2020-03-28 00:00:00 ArcSWAT 2012.10_5.21
  LATITUDE = -12.02 LONGITUDE = -74.69
  ELEV [m] =1905.00
  RAIN_YRS =  32.00
 11.86 11.43 11.50 12.14 13.02 12.56 12.02 12.23 12.01 12.93 13.10 12.57
  5.39  5.40  5.12  4.67  3.38  2.17  1.79  2.72  3.80  4.65  4.92  5.23
  2.23  2.31  2.34  2.38  2.14  1.99  2.40  2.70  2.66  2.51  2.66  2.47
  1.03  0.98  1.07  1.22  1.47  1.29  1.33  1.20  1.23  1.22  1.37  1.13
 219.2 246.6 257.5 152.3  42.6  15.9  15.0  27.9  49.4  77.1 131.3 179.5
  7.98  8.66  8.74  7.54  3.82  1.97  1.49  2.36  3.18  4.73  6.83  7.35
  1.76  1.47  1.86  2.24  4.83  7.46  5.74  4.51  3.70  3.10  2.31  1.76
  0.65  0.64  0.63  0.37  0.16  0.10  0.13  0.18  0.28  0.31  0.35  0.47
  0.48  0.48  0.47  0.45  0.39  0.36  0.34  0.38  0.41  0.40  0.44  0.46
 26.50 25.06 27.31 20.53 10.22  5.59  6.44  9.38 14.59 15.50 18.50 23.09
 18.18 22.24 26.25 19.11 11.98 10.09  7.25  7.22 10.58 13.23 15.93 15.36
 12.71 10.80 10.56 13.11 17.35 18.09 18.00 17.73 15.75 17.23 17.48 15.41
  0.84  0.85  0.85  0.82  0.72  0.68  0.68  0.70  0.75  0.75  0.76  0.79
  2.52  2.33  2.30  2.41  2.90  3.26  3.36  3.30  3.15  3.13  2.97  2.67
