 .Wgn file Subbasin: 134 STATION NAME:126s744w 2020-03-28 00:00:00 ArcSWAT 2012.10_5.21
  LATITUDE = -12.65 LONGITUDE = -74.38
  ELEV [m] =3163.00
  RAIN_YRS =  32.00
 16.85 16.33 16.29 16.71 16.80 15.85 15.43 16.49 17.27 18.30 18.21 17.70
  5.97  5.87  5.66  5.03  3.63  2.54  1.99  2.65  3.50  4.60  5.21  5.76
  2.19  2.35  2.39  2.07  1.52  1.39  1.72  1.91  1.89  1.85  2.25  2.28
  1.12  1.12  1.15  1.25  1.40  1.23  1.26  1.21  1.30  1.39  1.63  1.19
  39.7  45.0  50.9  21.1   4.1   1.4   0.9   2.9   3.7  10.6  21.1  28.8
  3.04  2.97  3.50  2.02  0.65  0.36  0.19  0.65  0.58  1.52  2.20  2.37
  3.80  3.29  3.46  4.53  8.37 13.31  8.03 12.21  7.25  7.79  5.04  4.22
  0.32  0.38  0.39  0.17  0.05  0.02  0.02  0.03  0.06  0.09  0.15  0.23
  0.29  0.34  0.30  0.32  0.30  0.31  0.31  0.27  0.25  0.31  0.30  0.32
 10.81 12.53 12.75  7.13  2.47  1.00  1.00  1.41  2.41  3.88  6.16  9.13
  8.62  9.37  9.45  6.59  3.36  2.40  0.84  4.41  2.55  7.35  8.05  8.88
 25.25 23.29 22.16 22.63 23.10 22.15 22.83 25.11 27.28 29.04 28.20 26.83
  0.75  0.76  0.76  0.72  0.66  0.62  0.61  0.61  0.65  0.66  0.68  0.70
  3.17  3.04  3.04  3.20  3.45  3.74  3.92  4.07  3.99  3.90  3.60  3.36
