 .Sol file Watershed HRU:143 Subbasin:143 HRU:1 Luse:PAST Soil: Tv5-b-5682 Slope: 40.0-9999 2020-03-28 00:00:00 ArcSWAT 2012.10_5.21
 Soil Name: Tv5-b-5682
 Soil Hydrologic Group: C
 Maximum rooting depth(mm) :  810.00
 Porosity fraction from which anions are excluded: 0.500
 Crack volume potential of soil: 0.500
 Texture 1                : LOAM
 Depth                [mm]:      300.00     1000.00
 Bulk Density Moist [g/cc]:        1.10        1.10
 Ave. AW Incl. Rock Frag  :        0.14        0.14
 Ksat. (est.)      [mm/hr]:       32.49       38.75
 Organic Carbon [weight %]:        2.00        0.70
 Clay           [weight %]:       14.00       14.00
 Silt           [weight %]:       42.00       34.00
 Sand           [weight %]:       44.00       52.00
 Rock Fragments   [vol. %]:        0.00        0.00
 Soil Albedo (Moist)      :        0.01        0.13
 Erosion K                :        0.24        0.24
 Salinity (EC, Form 5)    :        0.00        0.00
 Soil pH                  :        0.00        0.00
 Soil CACO3               :        0.00        0.00
                              
