 .Sol file Watershed HRU:147 Subbasin:147 HRU:1 Luse:PAST Soil: Kk1-3a-5567 Slope: 0-10.0 2020-03-28 00:00:00 ArcSWAT 2012.10_5.21
 Soil Name: Kk1-3a-5567
 Soil Hydrologic Group: C
 Maximum rooting depth(mm) : 1000.00
 Porosity fraction from which anions are excluded: 0.500
 Crack volume potential of soil: 0.500
 Texture 1                : CLAY_LOAM
 Depth                [mm]:      300.00     1000.00
 Bulk Density Moist [g/cc]:        1.10        1.20
 Ave. AW Incl. Rock Frag  :        0.18        0.18
 Ksat. (est.)      [mm/hr]:       22.48       12.85
 Organic Carbon [weight %]:        1.40        0.60
 Clay           [weight %]:       39.00       41.00
 Silt           [weight %]:       38.00       38.00
 Sand           [weight %]:       23.00       21.00
 Rock Fragments   [vol. %]:        0.00        0.00
 Soil Albedo (Moist)      :        0.03        0.15
 Erosion K                :        0.30        0.30
 Salinity (EC, Form 5)    :        0.00        0.00
 Soil pH                  :        0.00        0.00
 Soil CACO3               :        0.00        0.00
                              
