 .Wgn file Subbasin: 141 STATION NAME:130s744w 2020-03-28 00:00:00 ArcSWAT 2012.10_5.21
  LATITUDE = -12.96 LONGITUDE = -74.38
  ELEV [m] =2682.00
  RAIN_YRS =  32.00
 14.23 13.51 13.51 14.07 14.25 13.06 12.54 13.59 14.32 15.57 15.65 15.11
  4.00  3.71  3.39  2.44  0.89 -0.52 -1.11 -0.47  0.75  2.17  3.16  3.80
  2.42  2.63  2.62  2.50  1.99  1.86  2.22  2.46  2.52  2.42  2.67  2.55
  1.37  1.43  1.42  1.63  1.96  1.79  1.90  1.89  1.99  2.02  1.79  1.57
 136.3 133.5 126.9  63.4  19.5   7.3   5.6  15.0  36.0  55.6  90.3 117.3
  5.38  5.04  5.00  4.10  2.06  1.18  0.65  1.67  2.65  3.46  4.94  5.16
  2.06  1.78  2.88  3.89  6.08  8.43  5.69  5.60  3.12  2.91  2.94  2.28
  0.62  0.68  0.60  0.28  0.11  0.05  0.06  0.10  0.16  0.23  0.32  0.47
  0.44  0.46  0.45  0.40  0.35  0.38  0.36  0.34  0.38  0.39  0.43  0.44
 23.44 23.22 24.28 14.38  6.41  3.13  3.69  5.19  9.72 12.38 16.25 20.91
 12.56 11.46 16.94 14.03  9.69  5.67  3.05  6.30  6.34  9.07 15.94 13.36
 22.63 20.44 19.60 20.91 22.13 21.60 22.36 24.25 25.19 26.92 26.46 24.68
  0.80  0.82  0.82  0.78  0.72  0.68  0.67  0.67  0.71  0.71  0.71  0.74
  2.78  2.59  2.52  2.65  2.88  3.21  3.41  3.54  3.44  3.31  2.98  2.80
