 .Wgn file Subbasin: 153 STATION NAME:123s741w 2020-03-28 00:00:00 ArcSWAT 2012.10_5.21
  LATITUDE = -12.33 LONGITUDE = -74.06
  ELEV [m] = 996.00
  RAIN_YRS =  32.00
 23.64 23.65 23.73 24.01 24.11 23.52 23.39 24.66 25.48 26.20 25.54 24.61
 11.33 11.48 11.60 11.10  9.17  7.62  7.26  8.74  9.65 10.69 10.88 10.86
  2.55  2.54  2.66  2.21  1.69  1.42  1.66  1.91  1.93  2.08  2.49  2.45
  1.71  1.54  1.68  1.85  2.01  1.98  2.17  2.23  2.33  2.23  2.30  2.06
  56.4  61.2  86.5  32.0   3.3   0.7   0.3   1.4   1.1  12.5  30.7  35.2
  4.60  4.68  6.46  3.60  0.60  0.22  0.12  0.63  0.29  1.96  3.39  3.16
  3.77  3.29  3.43  5.42  8.00 14.95 17.58 23.52  9.68  7.69  4.74  4.04
  0.31  0.37  0.36  0.18  0.04  0.01  0.01  0.01  0.02  0.07  0.16  0.23
  0.25  0.29  0.27  0.26  0.19  0.33  0.09  0.18  0.13  0.24  0.26  0.22
  9.97 10.81 11.44  6.28  1.78  0.56  0.34  0.53  0.72  2.94  5.63  7.38
 12.92 13.57 19.10 13.55  2.79  1.77  1.05  6.11  1.36  8.29 10.80  8.06
 23.51 22.76 21.70 21.71 21.88 21.36 22.02 23.96 25.51 26.53 25.78 24.95
  0.72  0.72  0.72  0.70  0.64  0.59  0.56  0.53  0.56  0.58  0.64  0.68
  2.23  2.16  2.17  2.30  2.53  2.79  2.95  3.08  2.97  2.85  2.61  2.43
