 .Wgn file Subbasin: 151 STATION NAME:120s744w 2020-03-28 00:00:00 ArcSWAT 2012.10_5.21
  LATITUDE = -12.02 LONGITUDE = -74.38
  ELEV [m] =3976.00
  RAIN_YRS =  32.00
 21.91 21.81 21.90 21.95 22.00 21.36 21.04 22.14 22.82 23.78 23.46 22.69
  9.67 10.23  9.94  9.60  7.97  6.14  5.56  6.59  7.93  8.59  9.01  9.08
  2.15  2.21  2.32  1.96  1.61  1.43  1.77  1.99  1.88  1.96  2.20  2.13
  1.29  1.27  1.44  1.56  1.72  1.45  1.62  1.73  1.79  1.82  1.97  1.78
  39.6  45.7  57.6  25.2   5.2   1.8   1.0   2.6   2.9  10.9  24.1  29.5
  3.75  3.86  4.67  2.83  1.06  0.60  0.31  0.84  0.68  1.85  2.81  2.73
  4.49  3.63  3.87  5.22  9.12 17.57 14.37 16.57 14.08  8.20  4.97  4.21
  0.24  0.31  0.31  0.17  0.04  0.01  0.02  0.02  0.04  0.07  0.15  0.19
  0.21  0.25  0.23  0.22  0.26  0.24  0.19  0.21  0.20  0.21  0.22  0.24
  7.63  8.91  9.63  5.59  1.81  0.66  0.66  0.75  1.38  2.69  5.19  6.75
 12.45 11.65 16.08 10.84  5.72  5.14  2.24  6.72  5.29  8.68  8.29  8.82
 22.39 20.89 19.81 20.11 20.95 20.46 20.78 22.51 23.78 25.70 24.94 23.75
  0.72  0.71  0.72  0.70  0.64  0.59  0.57  0.56  0.59  0.61  0.64  0.68
  2.09  1.99  1.97  2.08  2.52  2.84  3.00  3.02  2.86  2.71  2.50  2.23
